Version 4.1
SHEET 1 2860 680
WIRE 720 -128 608 -128
WIRE 768 -128 720 -128
WIRE 608 -112 608 -128
WIRE 768 -112 768 -128
WIRE 368 -96 304 -96
WIRE 448 -96 432 -96
WIRE 448 -80 448 -96
WIRE 304 -64 304 -96
WIRE 768 0 768 -32
WIRE 880 0 768 0
WIRE 1024 0 880 0
WIRE 880 16 880 0
WIRE 1024 16 1024 0
WIRE 1568 16 1552 16
WIRE 1760 16 1728 16
WIRE 1776 16 1760 16
WIRE 1552 32 1552 16
WIRE 544 48 528 48
WIRE 608 48 608 -32
WIRE 608 48 544 48
WIRE 624 48 608 48
WIRE 1648 64 1648 16
WIRE 1728 64 1648 64
WIRE 1088 80 1088 32
WIRE 1088 80 1024 80
WIRE 1104 80 1088 80
WIRE 1216 80 1184 80
WIRE 1648 80 1648 64
WIRE 880 96 880 80
WIRE 880 96 768 96
WIRE 528 112 528 48
WIRE 608 112 608 48
WIRE 768 112 768 96
WIRE 880 112 880 96
WIRE 1024 112 1024 80
WIRE 1776 176 1776 16
WIRE 528 192 528 176
WIRE 880 192 880 176
WIRE 1456 192 1408 192
WIRE 1648 192 1648 160
WIRE 1648 192 1600 192
WIRE 1680 192 1648 192
WIRE 1744 192 1680 192
WIRE 1888 208 1808 208
WIRE 1936 208 1888 208
WIRE 1728 224 1728 64
WIRE 1744 224 1728 224
WIRE 1776 256 1776 240
FLAG 208 16 0
FLAG 304 16 0
FLAG 304 -96 Vcc
FLAG 208 -64 Vbias
FLAG 880 0 Vosc
FLAG 608 192 0
FLAG 528 192 0
FLAG 720 -128 Vcc
FLAG 768 192 0
FLAG 880 192 0
FLAG 1216 80 Vbias
FLAG 1024 176 0
FLAG 1088 32 varac
FLAG 544 48 bb1
FLAG 1888 208 Vout
FLAG 448 -80 0
FLAG 1776 256 0
FLAG 1552 32 0
FLAG 1408 192 Vosc
FLAG 1680 192 Vn1
FLAG 1760 16 Vcc
SYMBOL varactor 1040 176 R180
WINDOW 0 -37 48 Left 2
WINDOW 3 -80 25 Left 2
SYMATTR InstName D2
SYMATTR Value BB133
SYMBOL npn 704 0 R0
SYMATTR InstName Q1
SYMATTR Value BFR92P
SYMATTR Prefix X
SYMBOL voltage 208 -80 R0
WINDOW 123 0 0 Left 0
WINDOW 39 0 0 Left 0
SYMATTR InstName V1
SYMATTR Value {vb}
SYMBOL voltage 304 -80 R0
WINDOW 123 0 0 Left 0
WINDOW 39 40 66 Left 2
SYMATTR SpiceLine Rser=1m
SYMATTR InstName V2
SYMATTR Value {vcc}
SYMBOL ind 752 -128 R0
SYMATTR InstName L2
SYMATTR Value 21.2n
SYMATTR SpiceLine Cpar=0.3p
SYMBOL res 592 96 R0
SYMATTR InstName R1
SYMATTR Value 22k
SYMBOL res 592 -128 R0
SYMATTR InstName R2
SYMATTR Value 38k
SYMBOL res 752 96 R0
SYMATTR InstName R3
SYMATTR Value 500
SYMBOL cap 864 16 R0
SYMATTR InstName C1
SYMATTR Value 82p
SYMBOL cap 864 112 R0
WINDOW 3 33 48 Left 2
SYMATTR Value 82p
SYMATTR InstName C2
SYMBOL cap 544 176 R180
WINDOW 0 24 56 Left 2
WINDOW 3 24 8 Left 2
SYMATTR InstName C4
SYMATTR Value 100n
SYMBOL res 1200 64 R90
WINDOW 0 0 56 VBottom 2
WINDOW 3 32 56 VTop 2
SYMATTR InstName R4
SYMATTR Value 100k
SYMBOL cap 1040 80 R180
WINDOW 0 24 56 Left 2
WINDOW 3 24 8 Left 2
SYMATTR InstName C3
SYMATTR Value 100n
SYMBOL res 720 32 R90
WINDOW 0 0 56 VBottom 2
WINDOW 3 32 56 VTop 2
SYMATTR InstName R5
SYMATTR Value 47
SYMBOL cap 1520 176 R90
WINDOW 0 0 32 VBottom 2
WINDOW 3 32 32 VTop 2
SYMATTR InstName C6
SYMATTR Value 100n
SYMBOL res 1616 176 R90
WINDOW 0 0 56 VBottom 2
WINDOW 3 32 56 VTop 2
SYMATTR InstName R7
SYMATTR Value 14k
SYMBOL ind 1632 64 R0
SYMATTR InstName L4
SYMATTR Value 10m
SYMBOL cap 432 -112 R90
WINDOW 0 0 32 VBottom 2
WINDOW 3 32 32 VTop 2
SYMATTR InstName C9
SYMATTR Value 100n
SYMBOL res 1664 0 R90
WINDOW 0 0 56 VBottom 2
WINDOW 3 32 56 VTop 2
SYMATTR InstName R11
SYMATTR Value 51k
SYMBOL OpAmps\\opamp2 1776 144 R0
SYMATTR InstName U1
SYMATTR Value TLV3601
SYMBOL res 1744 0 R90
WINDOW 0 0 56 VBottom 2
WINDOW 3 32 56 VTop 2
SYMATTR InstName R13
SYMATTR Value 51k
TEXT 208 -240 Left 2 ;.step param vb 5 8 1
TEXT 208 -192 Left 2 ;.meas TRAN avg1 AVG V(varac)
TEXT 144 80 Left 2 !.param vb=5
TEXT 208 -168 Left 2 ;.options abstol=1e-3 reltol=1e-3
TEXT 784 -232 Left 2 !.inc lib\\BFR92P.lib
TEXT 208 -216 Left 2 !.tran 0 0.21m 0.20m 0.3n
TEXT 784 -200 Left 2 ;.ic V(varac)={vb} V(Vosc)={vcc} V(bb1)={vcc *22/(38+22)} V(bb2)={vcc} V(out)=0
TEXT 144 104 Left 2 !.param vcc=5
TEXT 512 280 Left 2 ;Bingo; tuned to perfection.\n(6 < Vbias < 8) maps almost-linearly to (144M < Fout < 148M)
TEXT 208 -296 Left 2 !.MODEL BB133 D(BV=30 CJO=53.493515P IBV=100P IS=10F M=1 RS=1M VJ=1.931292 type=varactor)
TEXT 784 -168 Left 2 !.ic V(varac)=vb
TEXT 784 -256 Left 2 !.inc lib\\tlv3601.lib
TEXT 1552 344 Left 2 ;TODO add phase det and allat
