Version 4.1
SHEET 1 2860 680
WIRE 720 -96 608 -96
WIRE 976 -96 720 -96
WIRE 608 -80 608 -96
WIRE 720 -80 720 -96
WIRE 976 -80 976 -96
WIRE 96 -16 96 -32
WIRE 720 0 720 -16
WIRE 720 0 608 0
WIRE 720 16 720 0
WIRE 832 80 752 80
WIRE 880 80 832 80
WIRE 928 80 880 80
WIRE 976 80 976 64
WIRE 976 80 928 80
WIRE 1024 80 976 80
WIRE 1056 80 1024 80
WIRE 1168 80 1136 80
WIRE 720 96 720 80
WIRE 832 112 832 80
WIRE 880 112 880 80
WIRE 928 112 928 80
WIRE 976 112 976 80
WIRE 752 128 752 80
WIRE 608 208 592 208
WIRE 752 208 752 192
WIRE 752 208 688 208
WIRE 592 224 592 208
WIRE 752 240 752 208
WIRE 528 304 512 304
WIRE 656 304 608 304
WIRE 752 304 656 304
WIRE 752 320 752 304
FLAG 208 16 0
FLAG 208 -64 Vbias
FLAG 720 -96 Vosc
FLAG 720 96 0
FLAG 1168 80 Vbias
FLAG 976 176 0
FLAG 1024 80 varac1
FLAG 928 176 0
FLAG 880 176 0
FLAG 832 176 0
FLAG 752 384 0
FLAG 512 304 Vfmod
FLAG 96 -112 Vfmod
FLAG 96 64 0
FLAG 656 304 varac2
FLAG 608 80 0
FLAG 592 224 0
SYMBOL varactor 992 176 R180
WINDOW 0 21 63 Left 2
WINDOW 3 -39 -45 Left 2
SYMATTR InstName D2
SYMATTR Value BB133
SYMBOL voltage 208 -80 R0
WINDOW 123 0 0 Left 0
WINDOW 39 0 0 Left 0
WINDOW 3 24 97 Left 2
SYMATTR Value {vb}
SYMATTR InstName V1
SYMBOL cap 704 -80 R0
SYMATTR InstName C1
SYMATTR Value 22p
SYMBOL cap 704 16 R0
WINDOW 3 33 48 Left 2
SYMATTR Value 22p
SYMATTR InstName C2
SYMBOL cap 992 64 R180
WINDOW 0 24 56 Left 2
WINDOW 3 25 20 Left 2
SYMATTR InstName C3
SYMATTR Value 100n
SYMBOL voltage 608 -96 M0
WINDOW 123 46 54 Left 2
WINDOW 39 0 0 Left 0
SYMATTR Value2 AC 1
SYMATTR InstName V3
SYMATTR Value ""
SYMBOL ind 960 -96 R0
SYMATTR InstName L1
SYMATTR Value 76n
SYMBOL varactor 912 176 M180
WINDOW 0 -20 64 Left 2
WINDOW 3 -19 -27 Left 2
SYMATTR InstName D1
SYMATTR Value BB133
SYMBOL varactor 864 176 M180
WINDOW 0 -19 61 Left 2
WINDOW 3 -26 -48 Left 2
SYMATTR InstName D3
SYMATTR Value BB133
SYMBOL varactor 816 176 M180
WINDOW 0 -22 62 Left 2
WINDOW 3 -19 -27 Left 2
SYMATTR InstName D4
SYMATTR Value BB133
SYMBOL cap 768 192 R180
WINDOW 0 24 56 Left 2
WINDOW 3 25 20 Left 2
SYMATTR InstName C4
SYMATTR Value 6.8p
SYMBOL varactor 736 384 M180
WINDOW 0 -22 62 Left 2
WINDOW 3 -19 -27 Left 2
SYMATTR InstName D5
SYMATTR Value BB133
SYMBOL voltage 96 -128 R0
WINDOW 3 -169 42 Left 2
WINDOW 123 0 0 Left 0
WINDOW 39 0 0 Left 0
SYMATTR Value {vb_small}
SYMATTR InstName V4
SYMBOL voltage 96 -32 M0
WINDOW 0 32 37 Left 2
WINDOW 3 39 76 Left 2
SYMATTR InstName V5
SYMATTR Value {vcc}
SYMBOL ind 624 96 R180
WINDOW 0 36 80 Left 2
WINDOW 3 36 40 Left 2
SYMATTR InstName L2
SYMATTR Value 10m
SYMBOL ind 512 320 R270
WINDOW 0 32 56 VTop 2
WINDOW 3 5 56 VBottom 2
SYMATTR InstName L3
SYMATTR Value 1m
SYMATTR SpiceLine Rser=10
SYMBOL ind 1040 96 R270
WINDOW 0 32 56 VTop 2
WINDOW 3 5 56 VBottom 2
SYMATTR InstName L4
SYMATTR Value 1m
SYMATTR SpiceLine Rser=10
SYMBOL varactor 736 240 R0
WINDOW 3 44 49 Left 2
SYMATTR Value BB133
SYMATTR InstName D6
SYMBOL ind 592 224 R270
WINDOW 0 32 56 VTop 2
WINDOW 3 5 56 VBottom 2
SYMATTR InstName L5
SYMATTR Value 1m
SYMATTR SpiceLine Rser=10
TEXT 208 -256 Left 2 !.step param vb 5 8 1
TEXT 144 80 Left 2 !.param vb=5 vb_small=0
TEXT 144 104 Left 2 !.param vcc=5
TEXT 208 -296 Left 2 !.MODEL BB133 D (BV=30 CJO=53.493515P IBV=100P IS=10F M=1 RS=1M VJ=1.931292 type=varactor)
TEXT 784 -192 Left 2 !.ic V(varac1)=vb V(varac2)={vb_small+vcc}
TEXT 208 -200 Left 2 !.ac dec 500k 100Meg 300Meg
TEXT 208 -232 Left 2 !.step param vb_small list -0.1 0 0.1
